<?xml version="1.0" encoding="UTF-8"?>

<!-- generated on 2025-11-11 15:39:43 by Eclipse SUMO netconvert Version 1.24.0
<netconvertConfiguration xmlns:xsi="http://www.w3.org/2001/XMLSchema-instance" xsi:noNamespaceSchemaLocation="http://sumo.dlr.de/xsd/netconvertConfiguration.xsd">

    <input>
        <type-files value="${SUMO_HOME}/data/typemap/osmNetconvert.typ.xml"/>
        <osm-files value="osm_bbox.osm.xml.gz"/>
    </input>

    <output>
        <output-file value="osm.net.xml.gz"/>
        <output.street-names value="true"/>
        <output.original-names value="true"/>
    </output>

    <projection>
        <proj.utm value="true"/>
    </projection>

    <processing>
        <geometry.remove value="true"/>
        <roundabouts.guess value="true"/>
    </processing>

    <tls_building>
        <tls.discard-simple value="true"/>
        <tls.join value="true"/>
        <tls.guess-signals value="true"/>
        <tls.default-type value="actuated"/>
    </tls_building>

    <ramp_guessing>
        <ramps.guess value="true"/>
    </ramp_guessing>

    <junctions>
        <junctions.join value="true"/>
        <junctions.corner-detail value="5"/>
    </junctions>

</netconvertConfiguration>
-->

<net version="1.20" junctionCornerDetail="5" limitTurnSpeed="5.50" xmlns:xsi="http://www.w3.org/2001/XMLSchema-instance" xsi:noNamespaceSchemaLocation="http://sumo.dlr.de/xsd/net_file.xsd">

    <location netOffset="-390396.36,-5819637.83" convBoundary="0.00,0.00,1371.60,823.25" origBoundary="13.384683,52.516078,13.404763,52.523241" projParameter="+proj=utm +zone=33 +ellps=WGS84 +datum=WGS84 +units=m +no_defs"/>

    <type id="highway.footway" priority="1" numLanes="1" speed="2.78" allow="pedestrian" oneway="1" width="2.00"/>
    <type id="highway.living_street" priority="2" numLanes="1" speed="2.78" disallow="tram rail_urban rail rail_electric rail_fast ship container cable_car subway aircraft wheelchair scooter drone" oneway="0"/>
    <type id="highway.path" priority="1" numLanes="1" speed="5.56" allow="pedestrian bicycle" oneway="0" width="2.00"/>
    <type id="highway.pedestrian" priority="1" numLanes="1" speed="2.78" allow="pedestrian" oneway="1" width="2.00"/>
    <type id="highway.primary" priority="12" numLanes="2" speed="27.78" disallow="tram rail_urban rail rail_electric rail_fast ship container cable_car subway aircraft wheelchair scooter drone" oneway="0"/>
    <type id="highway.residential" priority="3" numLanes="1" speed="13.89" disallow="tram rail_urban rail rail_electric rail_fast ship container cable_car subway aircraft wheelchair scooter drone" oneway="0"/>
    <type id="highway.secondary" priority="11" numLanes="1" speed="27.78" disallow="tram rail_urban rail rail_electric rail_fast ship container cable_car subway aircraft wheelchair scooter drone" oneway="0"/>
    <type id="highway.service" priority="1" numLanes="1" speed="5.56" allow="pedestrian delivery bicycle" oneway="0"/>
    <type id="highway.service|psv" priority="1" numLanes="1" speed="13.89" allow="pedestrian bus delivery bicycle" oneway="0"/>
    <type id="highway.steps" priority="1" numLanes="1" speed="1.39" allow="pedestrian" oneway="1" width="2.00"/>
    <type id="highway.tertiary" priority="10" numLanes="1" speed="22.22" disallow="tram rail_urban rail rail_electric rail_fast ship container cable_car subway aircraft wheelchair scooter drone" oneway="0"/>
    <type id="railway.light_rail" priority="19" numLanes="1" speed="27.78" allow="rail_urban" oneway="1"/>
    <type id="railway.rail" priority="20" numLanes="1" speed="44.44" allow="rail" oneway="1"/>
    <type id="railway.subway" priority="18" numLanes="1" speed="27.78" allow="subway" oneway="1"/>
    <type id="railway.tram" priority="17" numLanes="1" speed="13.89" allow="tram" oneway="1"/>

    <edge id=":10053209432_0" function="internal">
        <lane id=":10053209432_0_0" index="0" allow="pedestrian delivery bicycle" speed="8.33" length="5.20" shape="1283.24,524.34 1279.03,521.29"/>
    </edge>
    <edge id=":10053209432_1" function="internal">
        <lane id=":10053209432_1_0" index="0" allow="pedestrian delivery bicycle" speed="3.65" length="1.44" shape="1283.24,524.34 1282.74,522.99"/>
    </edge>
    <edge id=":10053209432_4" function="internal">
        <lane id=":10053209432_4_0" index="0" allow="pedestrian delivery bicycle" speed="3.65" length="3.23" shape="1282.74,522.99 1282.88,522.10 1283.68,521.69 1285.12,521.75"/>
    </edge>
    <edge id=":10053209432_2" function="internal">
        <lane id=":10053209432_2_0" index="0" allow="pedestrian delivery bicycle" speed="8.33" length="5.21" shape="1280.90,518.69 1285.12,521.75"/>
    </edge>
    <edge id=":10053209432_3" function="internal">
        <lane id=":10053209432_3_0" index="0" allow="pedestrian delivery bicycle" speed="3.65" length="1.44" shape="1280.90,518.69 1281.41,520.05"/>
    </edge>
    <edge id=":10053209432_5" function="internal">
        <lane id=":10053209432_5_0" index="0" allow="pedestrian delivery bicycle" speed="3.65" length="3.23" shape="1281.41,520.05 1281.26,520.93 1280.47,521.34 1279.03,521.29"/>
    </edge>
    <edge id=":10083821714_0" function="internal">
        <lane id=":10083821714_0_0" index="0" disallow="tram rail_urban rail rail_electric rail_fast ship container cable_car subway aircraft wheelchair scooter drone" speed="8.33" length="3.05" shape="778.24,325.21 777.51,324.68 777.06,324.25 776.62,323.81 775.90,323.27"/>
    </edge>
    <edge id=":10083821714_1" function="internal">
        <lane id=":10083821714_1_0" index="0" disallow="tram rail_urban rail rail_electric rail_fast ship container cable_car subway aircraft wheelchair scooter drone" speed="8.33" length="2.96" width="4.00" shape="777.63,320.58 778.39,320.99 778.97,321.19 779.54,321.39 780.32,321.79"/>
    </edge>
    <edge id=":10083827716_0" function="internal">
        <lane id=":10083827716_0_0" index="0" disallow="tram rail_urban rail rail_electric rail_fast ship container cable_car subway aircraft wheelchair scooter drone" speed="8.33" length="3.26" width="4.00" shape="836.70,360.37 835.95,359.81 835.58,359.23 835.22,358.64 834.47,358.07"/>
    </edge>
    <edge id=":10083827716_1" function="internal">
        <lane id=":10083827716_1_0" index="0" disallow="tram rail_urban rail rail_electric rail_fast ship container cable_car subway aircraft wheelchair scooter drone" speed="8.33" length="3.17" width="6.10" shape="836.31,354.51 837.18,354.78 837.85,354.71 838.52,354.65 839.40,354.90"/>
    </edge>
    <edge id=":10189040386_0" function="internal">
        <lane id=":10189040386_0_0" index="0" disallow="pedestrian tram rail_urban rail rail_electric rail_fast ship container cable_car subway aircraft wheelchair scooter drone" speed="13.89" length="8.21" shape="473.72,159.21 471.31,159.27 469.67,159.70 468.03,160.12 465.62,160.18"/>
        <lane id=":10189040386_0_1" index="1" disallow="pedestrian tram rail_urban rail rail_electric rail_fast ship container cable_car subway aircraft wheelchair scooter drone" speed="13.89" length="8.21" shape="473.97,156.02 471.56,156.08 469.92,156.51 468.28,156.93 465.87,156.99"/>
        <lane id=":10189040386_0_2" index="2" disallow="pedestrian tram rail_urban rail rail_electric rail_fast ship container cable_car subway aircraft wheelchair scooter drone" speed="13.89" length="8.21" shape="473.97,156.02 471.60,155.59 470.05,154.91 468.49,154.24 466.12,153.80"/>
    </edge>
    <edge id=":10189040387_0" function="internal">
        <lane id=":10189040387_0_0" index="0" disallow="pedestrian tram rail_urban rail rail_electric rail_fast ship container cable_car subway aircraft wheelchair scooter drone" speed="13.89" length="8.21" shape="160.04,133.32 157.63,133.37 155.98,133.79 154.34,134.21 151.93,134.26"/>
        <lane id=":10189040387_0_1" index="1" disallow="pedestrian tram rail_urban rail rail_electric rail_fast ship container cable_car subway aircraft wheelchair scooter drone" speed="13.89" length="8.21" shape="160.30,130.14 157.89,130.19 156.25,130.60 154.61,131.02 152.20,131.07"/>
        <lane id=":10189040387_0_2" index="2" disallow="pedestrian tram rail_urban rail rail_electric rail_fast ship container cable_car subway aircraft wheelchair scooter drone" speed="13.89" length="8.21" shape="160.30,130.14 157.93,129.69 156.38,129.01 154.83,128.33 152.46,127.88"/>
    </edge>
    <edge id=":10196206493_0" function="internal">
        <lane id=":10196206493_0_0" index="0" allow="pedestrian delivery bicycle" speed="5.56" length="5.45" shape="413.92,677.55 413.44,682.97"/>
    </edge>
    <edge id=":10196206493_1" function="internal">
        <lane id=":10196206493_1_0" index="0" allow="pedestrian delivery bicycle" speed="3.65" length="1.44" shape="413.92,677.55 413.01,678.67"/>
    </edge>
    <edge id=":10196206493_4" function="internal">
        <lane id=":10196206493_4_0" index="0" allow="pedestrian delivery bicycle" speed="3.65" length="3.23" shape="413.01,678.67 412.17,678.99 411.41,678.51 410.73,677.24"/>
    </edge>
    <edge id=":10196206493_2" function="internal">
        <lane id=":10196206493_2_0" index="0" allow="pedestrian delivery bicycle" speed="5.56" length="5.51" shape="410.25,682.72 410.73,677.24"/>
    </edge>
    <edge id=":10196206493_3" function="internal">
        <lane id=":10196206493_3_0" index="0" allow="pedestrian delivery bicycle" speed="3.65" length="1.44" shape="410.25,682.72 411.14,681.59"/>
    </edge>
    <edge id=":10196206493_5" function="internal">
        <lane id=":10196206493_5_0" index="0" allow="pedestrian delivery bicycle" speed="3.65" length="3.23" shape="411.14,681.59 411.97,681.25 412.74,681.72 413.44,682.97"/>
    </edge>
    <edge id=":10196206498_0" function="internal">
        <lane id=":10196206498_0_0" index="0" allow="pedestrian delivery bicycle" speed="5.56" length="5.07" shape="500.19,573.79 495.14,573.30"/>
    </edge>
    <edge id=":10196206498_1" function="internal">
        <lane id=":10196206498_1_0" index="0" allow="pedestrian delivery bicycle" speed="3.65" length="1.44" shape="500.19,573.79 499.09,572.85"/>
    </edge>
    <edge id=":10196206498_4" function="internal">
        <lane id=":10196206498_4_0" index="0" allow="pedestrian delivery bicycle" speed="3.65" length="3.23" shape="499.09,572.85 498.79,572.01 499.28,571.26 500.56,570.61"/>
    </edge>
    <edge id=":10196206498_2" function="internal">
        <lane id=":10196206498_2_0" index="0" allow="pedestrian delivery bicycle" speed="5.56" length="5.16" shape="495.43,570.11 500.56,570.61"/>
    </edge>
    <edge id=":10196206498_3" function="internal">
        <lane id=":10196206498_3_0" index="0" allow="pedestrian delivery bicycle" speed="3.65" length="1.44" shape="495.43,570.11 496.55,571.02"/>
    </edge>
    <edge id=":10196206498_5" function="internal">
        <lane id=":10196206498_5_0" index="0" allow="pedestrian delivery bicycle" speed="3.65" length="3.23" shape="496.55,571.02 496.88,571.85 496.41,572.61 495.14,573.30"/>
    </edge>
    <edge id=":10196222666_0" function="internal">
        <lane id=":10196222666_0_0" index="0" allow="pedestrian delivery bicycle" speed="3.65" length="4.67" shape="659.64,805.19 658.26,804.79 657.64,804.14 657.78,803.26 658.69,802.14"/>
    </edge>
    <edge id=":10196222667_0" function="internal">
        <lane id=":10196222667_0_0" index="0" allow="pedestrian delivery bicycle" speed="6.07" length="7.85" shape="677.68,794.43 678.07,796.56 677.68,798.28 676.51,799.61 674.56,800.54"/>
    </edge>
    <edge id=":10196222667_1" function="internal">
        <lane id=":10196222667_1_0" index="0" disallow="tram rail_urban rail rail_electric rail_fast ship container cable_car subway aircraft wheelchair scooter drone" speed="3.65" length="4.67" shape="677.68,794.43 677.30,795.83 676.67,796.46 675.79,796.33 674.65,795.45"/>
    </edge>
    <edge id=":10196222667_2" function="internal">
        <lane id=":10196222667_2_0" index="0" allow="pedestrian delivery bicycle" speed="3.90" length="2.62" shape="673.61,797.48 674.26,797.17 674.65,796.73 674.78,796.15 674.65,795.45"/>
    </edge>
    <edge id=":10242249291_0" function="internal">
        <lane id=":10242249291_0_0" index="0" disallow="tram rail_urban rail rail_electric rail_fast ship container cable_car subway aircraft wheelchair scooter drone" speed="8.33" length="0.10" shape="612.72,385.94 612.72,385.94"/>
    </edge>
    <edge id=":10287125250_0" function="internal">
        <lane id=":10287125250_0_0" index="0" disallow="tram rail_urban rail rail_electric rail_fast ship container cable_car subway aircraft wheelchair scooter drone" speed="8.33" length="5.01" shape="393.04,252.63 388.05,252.21"/>
    </edge>
    <edge id=":10287125250_1" function="internal">
        <lane id=":10287125250_1_0" index="0" disallow="tram rail_urban rail rail_electric rail_fast ship container cable_car subway aircraft wheelchair scooter drone" speed="8.33" length="5.01" shape="388.31,249.02 393.31,249.44"/>
    </edge>
    <edge id=":10287125256_0" function="internal">
        <lane id=":10287125256_0_0" index="0" allow="pedestrian delivery bicycle" speed="3.65" length="4.67" shape="394.76,425.59 395.89,426.49 396.21,427.32 395.74,428.08 394.48,428.77"/>
    </edge>
    <edge id=":10287125259_0" function="internal">
        <lane id=":10287125259_0_0" index="0" allow="pedestrian delivery bicycle" speed="3.65" length="4.67" shape="364.93,481.24 364.03,480.11 363.88,479.23 364.50,478.59 365.89,478.18"/>
    </edge>
    <edge id=":10287150282_0" function="internal">
        <lane id=":10287150282_0_0" index="0" allow="pedestrian delivery bicycle" speed="5.56" length="5.01" shape="255.47,539.77 250.48,539.40"/>
    </edge>
    <edge id=":10287150282_1" function="internal">
        <lane id=":10287150282_1_0" index="0" allow="pedestrian delivery bicycle" speed="3.65" length="1.44" shape="255.47,539.77 254.33,538.88"/>
    </edge>
    <edge id=":10287150282_4" function="internal">
        <lane id=":10287150282_4_0" index="0" allow="pedestrian delivery bicycle" speed="3.65" length="3.23" shape="254.33,538.88 254.00,538.06 254.46,537.29 255.71,536.58"/>
    </edge>
    <edge id=":10287150282_2" function="internal">
        <lane id=":10287150282_2_0" index="0" allow="pedestrian delivery bicycle" speed="5.56" length="5.02" shape="250.71,536.21 255.71,536.58"/>
    </edge>
    <edge id=":10287150282_3" function="internal">
        <lane id=":10287150282_3_0" index="0" allow="pedestrian delivery bicycle" speed="3.65" length="1.44" shape="250.71,536.21 251.85,537.09"/>
    </edge>
    <edge id=":10287150282_5" function="internal">
        <lane id=":10287150282_5_0" index="0" allow="pedestrian delivery bicycle" speed="3.65" length="3.23" shape="251.85,537.09 252.19,537.92 251.73,538.69 250.48,539.40"/>
    </edge>
    <edge id=":10287150283_0" function="internal">
        <lane id=":10287150283_0_0" index="0" allow="pedestrian delivery bicycle" speed="3.65" length="4.67" shape="272.45,538.11 273.57,539.02 273.90,539.85 273.43,540.61 272.16,541.30"/>
    </edge>
    <edge id=":10287150288_0" function="internal">
        <lane id=":10287150288_0_0" index="0" allow="tram" speed="13.89" length="3.99" shape="272.99,320.60 274.01,319.99 274.72,319.59 275.46,319.27 276.58,318.86"/>
    </edge>
    <edge id=":10287150289_0" function="internal">
        <lane id=":10287150289_0_0" index="0" allow="tram" speed="13.89" length="3.30" shape="276.87,322.19 275.94,322.51 275.27,322.68 274.65,322.91 273.83,323.43"/>
    </edge>
    <edge id=":10298577286_0" function="internal">
        <lane id=":10298577286_0_0" index="0" disallow="pedestrian tram rail_urban rail rail_electric rail_fast ship container cable_car subway aircraft wheelchair scooter drone" speed="13.89" length="8.21" shape="354.42,114.64 356.83,114.59 358.47,114.18 360.12,113.76 362.53,113.71"/>
        <lane id=":10298577286_0_1" index="1" disallow="pedestrian tram rail_urban rail rail_electric rail_fast ship container cable_car subway aircraft wheelchair scooter drone" speed="13.89" length="8.21" shape="354.16,117.83 356.57,117.78 358.21,117.37 359.85,116.95 362.26,116.90"/>
        <lane id=":10298577286_0_2" index="2" disallow="pedestrian tram rail_urban rail rail_electric rail_fast ship container cable_car subway aircraft wheelchair scooter drone" speed="13.89" length="8.21" shape="354.16,117.83 356.52,118.28 358.08,118.96 359.63,119.64 361.99,120.09"/>
    </edge>
    <edge id=":10301777692_0" function="internal">
        <lane id=":10301777692_0_0" index="0" allow="emergency authority pedestrian delivery bicycle" speed="3.65" length="4.67" shape="962.33,688.19 961.16,687.35 960.78,686.54 961.21,685.75 962.43,684.99"/>
    </edge>
    <edge id=":10309476546_0" function="internal">
        <lane id=":10309476546_0_0" index="0" disallow="pedestrian tram rail_urban rail rail_electric rail_fast ship container cable_car subway aircraft wheelchair scooter drone" speed="8.33" length="8.20" shape="1334.65,495.06 1333.40,497.11 1332.86,498.72 1332.32,500.32 1331.05,502.37"/>
    </edge>
    <edge id=":10315385453_0" function="internal">
        <lane id=":10315385453_0_0" index="0" allow="tram" speed="13.89" length="5.10" shape="1095.77,685.62 1100.79,684.74"/>
    </edge>
    <edge id=":10315421457_0" function="internal">
        <lane id=":10315421457_0_0" index="0" allow="tram" speed="13.89" length="4.59" shape="1291.11,777.61 1287.43,780.35"/>
    </edge>
    <edge id=":10540168523_0" function="internal">
        <lane id=":10540168523_0_0" index="0" allow="pedestrian delivery bicycle" speed="5.05" length="5.01" shape="20.96,298.91 19.59,298.99 18.58,299.48 17.91,300.40 17.59,301.74"/>
    </edge>
    <edge id=":10540168523_1" function="internal">
        <lane id=":10540168523_1_0" index="0" disallow="tram rail_urban rail rail_electric rail_fast ship container cable_car subway aircraft wheelchair scooter drone" speed="8.33" length="9.39" shape="20.96,298.91 11.61,298.07"/>
    </edge>
    <edge id=":10540168523_2" function="internal">
        <lane id=":10540168523_2_0" index="0" disallow="tram rail_urban rail rail_electric rail_fast ship container cable_car subway aircraft wheelchair scooter drone" speed="8.33" length="9.37" shape="11.90,294.88 21.24,295.72"/>
    </edge>
    <edge id=":10540168523_3" function="internal">
        <lane id=":10540168523_3_0" index="0" allow="pedestrian delivery bicycle" speed="6.86" length="3.25" shape="11.90,294.88 14.61,295.53 14.98,295.80"/>
    </edge>
    <edge id=":10540168523_7" function="internal">
        <lane id=":10540168523_7_0" index="0" allow="pedestrian delivery bicycle" speed="6.86" length="6.91" shape="14.98,295.80 16.46,296.89 17.46,298.96 17.59,301.74"/>
    </edge>
    <edge id=":10540168523_4" function="internal">
        <lane id=":10540168523_4_0" index="0" allow="pedestrian delivery bicycle" speed="5.04" length="5.00" shape="14.41,301.44 14.34,300.07 13.85,299.05 12.94,298.38 11.61,298.07"/>
    </edge>
    <edge id=":10540168523_5" function="internal">
        <lane id=":10540168523_5_0" index="0" allow="pedestrian delivery bicycle" speed="6.87" length="10.15" shape="14.41,301.44 15.05,298.73 16.40,296.88 18.47,295.87 21.24,295.72"/>
    </edge>
    <edge id=":10540168523_6" function="internal">
        <lane id=":10540168523_6_0" index="0" allow="pedestrian delivery bicycle" speed="3.65" length="4.67" shape="14.41,301.44 15.31,300.32 16.15,299.99 16.91,300.47 17.59,301.74"/>
    </edge>
    <edge id=":10555616512_0" function="internal">
        <lane id=":10555616512_0_0" index="0" allow="pedestrian delivery bicycle" speed="5.56" length="4.99" shape="1006.61,480.54 1003.63,484.53"/>
    </edge>
    <edge id=":10555616512_1" function="internal">
        <lane id=":10555616512_1_0" index="0" allow="pedestrian delivery bicycle" speed="3.65" length="4.68" shape="1006.61,480.54 1005.25,481.00 1004.37,480.83 1003.98,480.02 1004.08,478.58"/>
    </edge>
    <edge id=":10555616512_2" function="internal">
        <lane id=":10555616512_2_0" index="0" allow="pedestrian delivery bicycle" speed="5.56" length="5.00" shape="1001.09,482.59 1004.08,478.58"/>
    </edge>
    <edge id=":10555616512_3" function="internal">
        <lane id=":10555616512_3_0" index="0" allow="pedestrian delivery bicycle" speed="3.65" length="4.67" shape="1001.09,482.59 1002.45,482.12 1003.33,482.29 1003.72,483.09 1003.63,484.53"/>
    </edge>
    <edge id=":10555616513_0" function="internal">
        <lane id=":10555616513_0_0" index="0" allow="pedestrian delivery bicycle" speed="5.56" length="5.00" shape="948.85,441.89 945.81,445.86"/>
    </edge>
    <edge id=":10555616513_1" function="internal">
        <lane id=":10555616513_1_0" index="0" allow="pedestrian delivery bicycle" speed="3.65" length="1.44" shape="948.85,441.89 947.49,442.38"/>
    </edge>
    <edge id=":10555616513_4" function="internal">
        <lane id=":10555616513_4_0" index="0" allow="pedestrian delivery bicycle" speed="3.65" length="3.23" shape="947.49,442.38 946.61,442.22 946.21,441.42 946.28,439.98"/>
    </edge>
    <edge id=":10555616513_2" function="internal">
        <lane id=":10555616513_2_0" index="0" allow="pedestrian delivery bicycle" speed="5.56" length="5.00" shape="943.24,443.95 946.28,439.98"/>
    </edge>
    <edge id=":10555616513_3" function="internal">
        <lane id=":10555616513_3_0" index="0" allow="pedestrian delivery bicycle" speed="3.65" length="1.44" shape="943.24,443.95 944.60,443.46"/>
    </edge>
    <edge id=":10555616513_5" function="internal">
        <lane id=":10555616513_5_0" index="0" allow="pedestrian delivery bicycle" speed="3.65" length="3.23" shape="944.60,443.46 945.48,443.62 945.89,444.42 945.81,445.86"/>
    </edge>
    <edge id=":10578325129_0" function="internal">
        <lane id=":10578325129_0_0" index="0" allow="pedestrian delivery bicycle" speed="3.65" length="4.67" shape="166.78,755.89 167.50,757.15 167.49,758.04 166.78,758.58 165.34,758.75"/>
    </edge>
    <edge id=":10578403844_0" function="internal">
        <lane id=":10578403844_0_0" index="0" allow="pedestrian delivery bicycle" speed="3.65" length="4.67" shape="112.88,679.59 112.47,678.21 112.68,677.34 113.50,676.98 114.94,677.14"/>
    </edge>
    <edge id=":10578403845_0" function="internal">
        <lane id=":10578403845_0_0" index="0" disallow="tram rail_urban rail rail_electric rail_fast ship container cable_car subway aircraft wheelchair scooter drone" speed="8.33" length="9.40" shape="128.78,684.64 122.82,691.91"/>
    </edge>
    <edge id=":10578403845_1" function="internal">
        <lane id=":10578403845_1_0" index="0" allow="pedestrian delivery bicycle" speed="6.85" length="3.27" shape="128.78,684.64 126.71,686.53 126.27,686.69"/>
    </edge>
    <edge id=":10578403845_7" function="internal">
        <lane id=":10578403845_7_0" index="0" allow="pedestrian delivery bicycle" speed="6.85" length="6.94" shape="126.27,686.69 124.54,687.30 122.26,686.95 119.88,685.47"/>
    </edge>
    <edge id=":10578403845_2" function="internal">
        <lane id=":10578403845_2_0" index="0" allow="pedestrian delivery bicycle" speed="5.03" length="5.01" shape="121.94,683.02 123.11,683.74 124.23,683.92 125.29,683.54 126.31,682.61"/>
    </edge>
    <edge id=":10578403845_3" function="internal">
        <lane id=":10578403845_3_0" index="0" allow="pedestrian delivery bicycle" speed="6.89" length="10.16" shape="121.94,683.02 123.81,685.10 124.58,687.27 124.25,689.54 122.82,691.91"/>
    </edge>
    <edge id=":10578403845_4" function="internal">
        <lane id=":10578403845_4_0" index="0" allow="pedestrian delivery bicycle" speed="3.65" length="4.67" shape="121.94,683.02 122.35,684.40 122.14,685.27 121.32,685.63 119.88,685.47"/>
    </edge>
    <edge id=":10578403845_5" function="internal">
        <lane id=":10578403845_5_0" index="0" allow="pedestrian delivery bicycle" speed="5.08" length="5.04" shape="120.34,689.88 121.05,688.71 121.21,687.59 120.82,686.51 119.88,685.47"/>
    </edge>
    <edge id=":10578403845_6" function="internal">
        <lane id=":10578403845_6_0" index="0" disallow="tram rail_urban rail rail_electric rail_fast ship container cable_car subway aircraft wheelchair scooter drone" speed="8.33" length="9.40" shape="120.34,689.88 126.31,682.61"/>
    </edge>
    <edge id=":10578403870_0" function="internal">
        <lane id=":10578403870_0_0" index="0" allow="pedestrian delivery bicycle" speed="3.65" length="4.67" shape="24.00,613.70 23.15,612.53 23.06,611.64 23.71,611.03 25.11,610.70"/>
    </edge>
    <edge id=":10578403871_0" function="internal">
        <lane id=":10578403871_0_0" index="0" disallow="tram rail_urban rail rail_electric rail_fast ship container cable_car subway aircraft wheelchair scooter drone" speed="8.33" length="9.40" shape="32.82,610.26 29.57,619.08"/>
    </edge>
    <edge id=":10578403871_1" function="internal">
        <lane id=":10578403871_1_0" index="0" allow="pedestrian delivery bicycle" speed="6.08" length="7.77" shape="32.82,610.26 31.69,612.78 30.46,614.42 29.13,615.19 27.72,615.09"/>
    </edge>
    <edge id=":10578403871_2" function="internal">
        <lane id=":10578403871_2_0" index="0" allow="pedestrian delivery bicycle" speed="6.09" length="7.76" shape="28.84,612.09 29.98,612.93 30.48,614.38 30.34,616.43 29.57,619.08"/>
    </edge>
    <edge id=":10578403871_3" function="internal">
        <lane id=":10578403871_3_0" index="0" allow="pedestrian delivery bicycle" speed="3.65" length="4.67" shape="28.84,612.09 29.68,613.26 29.78,614.15 29.12,614.76 27.72,615.09"/>
    </edge>
    <edge id=":10647887038_0" function="internal">
        <lane id=":10647887038_0_0" index="0" allow="pedestrian delivery bicycle" speed="3.65" length="4.67" shape="37.91,793.88 37.30,792.58 37.37,791.69 38.13,791.21 39.57,791.15"/>
    </edge>
    <edge id=":10647887048_0" function="internal">
        <lane id=":10647887048_0_0" index="0" allow="pedestrian delivery bicycle" speed="3.65" length="4.68" shape="95.40,724.45 94.02,724.87 93.15,724.68 92.78,723.86 92.93,722.42"/>
    </edge>
    <edge id=":10647887049_0" function="internal">
        <lane id=":10647887049_0_0" index="0" allow="pedestrian delivery bicycle" speed="3.65" length="4.67" shape="91.72,718.32 91.02,717.06 91.04,716.16 91.77,715.64 93.20,715.49"/>
    </edge>
    <edge id=":10651746550_0" function="internal">
        <lane id=":10651746550_0_0" index="0" disallow="pedestrian tram rail_urban rail rail_electric rail_fast ship container cable_car subway aircraft wheelchair scooter drone" speed="13.89" length="8.08" shape="1294.51,384.62 1292.55,383.23 1291.00,382.58 1289.46,381.90 1287.57,380.44"/>
        <lane id=":10651746550_0_1" index="1" disallow="pedestrian tram rail_urban rail rail_electric rail_fast ship container cable_car subway aircraft wheelchair scooter drone" speed="13.89" length="8.08" shape="1296.62,382.21 1294.69,380.85 1293.16,380.22 1291.64,379.55 1289.78,378.13"/>
    </edge>
    <edge id=":10707641668_0" function="internal">
        <lane id=":10707641668_0_0" index="0" allow="pedestrian delivery bicycle" speed="5.05" length="5.02" shape="30.08,445.05 28.71,445.16 27.70,445.68 27.05,446.60 26.76,447.94"/>
    </edge>
    <edge id=":10707641668_1" function="internal">
        <lane id=":10707641668_1_0" index="0" allow="pedestrian delivery bicycle" speed="5.56" length="10.18" shape="30.08,445.05 27.35,444.48 25.46,443.18 24.41,441.13 24.20,438.35"/>
    </edge>
    <edge id=":10707641668_2" function="internal">
        <lane id=":10707641668_2_0" index="0" allow="pedestrian delivery bicycle" speed="3.65" length="4.67" shape="30.08,445.05 28.94,444.18 28.59,443.36 29.04,442.58 30.29,441.86"/>
    </edge>
    <edge id=":10707641668_3" function="internal">
        <lane id=":10707641668_3_0" index="0" allow="pedestrian delivery bicycle" speed="5.04" length="5.00" shape="27.40,438.56 27.50,439.93 28.02,440.94 28.94,441.58 30.29,441.86"/>
    </edge>
    <edge id=":10707641668_4" function="internal">
        <lane id=":10707641668_4_0" index="0" allow="pedestrian delivery bicycle" speed="5.56" length="9.40" shape="27.40,438.56 26.76,447.94"/>
    </edge>
    <edge id=":10707641668_5" function="internal">
        <lane id=":10707641668_5_0" index="0" allow="pedestrian delivery bicycle" speed="3.65" length="4.67" shape="27.40,438.56 26.52,439.71 25.69,440.05 24.92,439.60 24.20,438.35"/>
    </edge>
    <edge id=":10707641668_6" function="internal">
        <lane id=":10707641668_6_0" index="0" allow="pedestrian delivery bicycle" speed="5.56" length="9.40" shape="23.57,447.73 24.20,438.35"/>
    </edge>
    <edge id=":10707641668_7" function="internal">
        <lane id=":10707641668_7_0" index="0" allow="pedestrian delivery bicycle" speed="5.56" length="10.16" shape="23.57,447.73 24.15,445.01 25.46,443.13 27.51,442.08 30.29,441.86"/>
    </edge>
    <edge id=":10707641668_8" function="internal">
        <lane id=":10707641668_8_0" index="0" allow="pedestrian delivery bicycle" speed="3.65" length="4.67" shape="23.57,447.73 24.45,446.58 25.28,446.24 26.05,446.69 26.76,447.94"/>
    </edge>
    <edge id=":10707820112_0" function="internal">
        <lane id=":10707820112_0_0" index="0" allow="pedestrian delivery bicycle" speed="3.65" length="4.67" shape="109.55,421.73 110.45,420.60 111.28,420.26 112.04,420.73 112.74,421.99"/>
    </edge>
    <edge id=":10707820116_0" function="internal">
        <lane id=":10707820116_0_0" index="0" allow="pedestrian delivery bicycle" speed="3.65" length="4.67" shape="118.00,422.56 118.90,421.43 119.74,421.10 120.50,421.57 121.19,422.84"/>
    </edge>
    <edge id=":10707820130_0" function="internal">
        <lane id=":10707820130_0_0" index="0" allow="pedestrian delivery bicycle" speed="5.56" length="4.77" shape="274.20,669.94 275.28,665.29"/>
    </edge>
    <edge id=":10707820131_0" function="internal">